new transformer.C10_t21396254a        phases=1 windings=3  wdg=1 bus=C10_l2804253.1 kv=7.2 kva=15   wdg=2 bus=C10_x2804253a.1.0 kv=0.12 kva=15   wdg=3 bus=C10_x2804253a.0.2 kv=0.12 kva=15   %imag=0.5 %rs=[0.6 1.2 1.2] %noloadloss=.2 xhl=2.04  xht=2.04  xlt=1.36 
new transformer.C10_t5321859b         phases=1 windings=3  wdg=1 bus=C10_l3254213.2 kv=7.2 kva=25   wdg=2 bus=C10_x3254213b.1.0 kv=0.12 kva=25   wdg=3 bus=C10_x3254213b.0.2 kv=0.12 kva=25   %imag=0.5 %rs=[0.6 1.2 1.2] %noloadloss=.2 xhl=2.04  xht=2.04  xlt=1.36 
new transformer.C10_t5391741b         phases=1 windings=3  wdg=1 bus=C10_l3216339.2 kv=7.2 kva=25   wdg=2 bus=C10_x3216339b.1.0 kv=0.12 kva=25   wdg=3 bus=C10_x3216339b.0.2 kv=0.12 kva=25   %imag=0.5 %rs=[0.6 1.2 1.2] %noloadloss=.2 xhl=2.04  xht=2.04  xlt=1.36 
new transformer.C10_t5293672a         phases=1 windings=3  wdg=1 bus=C10_l2954355.1 kv=7.2 kva=15   wdg=2 bus=C10_x2954355a.1.0 kv=0.12 kva=15   wdg=3 bus=C10_x2954355a.0.2 kv=0.12 kva=15   %imag=0.5 %rs=[0.6 1.2 1.2] %noloadloss=.2 xhl=2.04  xht=2.04  xlt=1.36 
new transformer.C10_t21474711c        phases=1 windings=3  wdg=1 bus=C10_l2861197.3 kv=7.2 kva=15   wdg=2 bus=C10_x2861197c.1.0 kv=0.12 kva=15   wdg=3 bus=C10_x2861197c.0.2 kv=0.12 kva=15   %imag=0.5 %rs=[0.6 1.2 1.2] %noloadloss=.2 xhl=2.04  xht=2.04  xlt=1.36 
new transformer.C10_t5260488a         phases=1 windings=3  wdg=1 bus=C10_l2842379.1 kv=7.2 kva=37.5 wdg=2 bus=C10_x2842379a.1.0 kv=0.12 kva=37.5 wdg=3 bus=C10_x2842379a.0.2 kv=0.12 kva=37.5 %imag=0.5 %rs=[0.6 1.2 1.2] %noloadloss=.2 xhl=2.04  xht=2.04  xlt=1.36 
new transformer.C10_t5391758b         phases=1 windings=3  wdg=1 bus=C10_l2841636.2 kv=7.2 kva=15   wdg=2 bus=C10_x2841636b.1.0 kv=0.12 kva=15   wdg=3 bus=C10_x2841636b.0.2 kv=0.12 kva=15   %imag=0.5 %rs=[0.6 1.2 1.2] %noloadloss=.2 xhl=2.04  xht=2.04  xlt=1.36 
new transformer.C10_t228091193a       phases=1 windings=3  wdg=1 bus=C10_l3047289.1 kv=7.2 kva=50   wdg=2 bus=C10_x3047289a.1.0 kv=0.12 kva=50   wdg=3 bus=C10_x3047289a.0.2 kv=0.12 kva=50   %imag=0.5 %rs=[0.6 1.2 1.2] %noloadloss=.2 xhl=2.04  xht=2.04  xlt=1.36 
new transformer.C10_t228091193b       phases=1 windings=3  wdg=1 bus=C10_l3047289.2 kv=7.2 kva=50   wdg=2 bus=C10_x3047289b.1.0 kv=0.12 kva=50   wdg=3 bus=C10_x3047289b.0.2 kv=0.12 kva=50   %imag=0.5 %rs=[0.6 1.2 1.2] %noloadloss=.2 xhl=2.04  xht=2.04  xlt=1.36 
new transformer.C10_t228091193c       phases=1 windings=3  wdg=1 bus=C10_l3047289.3 kv=7.2 kva=50   wdg=2 bus=C10_x3047289c.1.0 kv=0.12 kva=50   wdg=3 bus=C10_x3047289c.0.2 kv=0.12 kva=50   %imag=0.5 %rs=[0.6 1.2 1.2] %noloadloss=.2 xhl=2.04  xht=2.04  xlt=1.36 
new transformer.C10_t5302862c         phases=1 windings=3  wdg=1 bus=C10_l3085399.3 kv=7.2 kva=15   wdg=2 bus=C10_x3085399c.1.0 kv=0.12 kva=15   wdg=3 bus=C10_x3085399c.0.2 kv=0.12 kva=15   %imag=0.5 %rs=[0.6 1.2 1.2] %noloadloss=.2 xhl=2.04  xht=2.04  xlt=1.36 
new transformer.C10_t21236413b        phases=1 windings=3  wdg=1 bus=C10_l3085391.2 kv=7.2 kva=50   wdg=2 bus=C10_x3085391b.1.0 kv=0.12 kva=50   wdg=3 bus=C10_x3085391b.0.2 kv=0.12 kva=50   %imag=0.5 %rs=[0.6 1.2 1.2] %noloadloss=.2 xhl=2.04  xht=2.04  xlt=1.36 
new transformer.C10_t5302468a         phases=1 windings=3  wdg=1 bus=C10_l2897778.1 kv=7.2 kva=10   wdg=2 bus=C10_x2897778a.1.0 kv=0.12 kva=10   wdg=3 bus=C10_x2897778a.0.2 kv=0.12 kva=10   %imag=0.5 %rs=[0.6 1.2 1.2] %noloadloss=.2 xhl=2.04  xht=2.04  xlt=1.36 
new transformer.C10_t5294787a         phases=1 windings=3  wdg=1 bus=C10_l3197647.1 kv=7.2 kva=10   wdg=2 bus=C10_x3197647a.1.0 kv=0.12 kva=10   wdg=3 bus=C10_x3197647a.0.2 kv=0.12 kva=10   %imag=0.5 %rs=[0.6 1.2 1.2] %noloadloss=.2 xhl=2.04  xht=2.04  xlt=1.36 
new transformer.C10_t5157715b         phases=1 windings=3  wdg=1 bus=C10_l2936275.2 kv=7.2 kva=10   wdg=2 bus=C10_x2936275b.1.0 kv=0.12 kva=10   wdg=3 bus=C10_x2936275b.0.2 kv=0.12 kva=10   %imag=0.5 %rs=[0.6 1.2 1.2] %noloadloss=.2 xhl=2.04  xht=2.04  xlt=1.36 
new transformer.C10_t5355768b         phases=1 windings=3  wdg=1 bus=C10_l2729408.2 kv=7.2 kva=25   wdg=2 bus=C10_x2729408b.1.0 kv=0.12 kva=25   wdg=3 bus=C10_x2729408b.0.2 kv=0.12 kva=25   %imag=0.5 %rs=[0.6 1.2 1.2] %noloadloss=.2 xhl=2.04  xht=2.04  xlt=1.36 
new transformer.C10_t5138562a         phases=1 windings=3  wdg=1 bus=C10_l2673310.1 kv=7.2 kva=25   wdg=2 bus=C10_x2673310a.1.0 kv=0.12 kva=25   wdg=3 bus=C10_x2673310a.0.2 kv=0.12 kva=25   %imag=0.5 %rs=[0.6 1.2 1.2] %noloadloss=.2 xhl=2.04  xht=2.04  xlt=1.36 
new transformer.C10_t5355934a         phases=1 windings=3  wdg=1 bus=C10_l3048212.1 kv=7.2 kva=10   wdg=2 bus=C10_x3048212a.1.0 kv=0.12 kva=10   wdg=3 bus=C10_x3048212a.0.2 kv=0.12 kva=10   %imag=0.5 %rs=[0.6 1.2 1.2] %noloadloss=.2 xhl=2.04  xht=2.04  xlt=1.36 
new transformer.C10_t5293483a         phases=1 windings=3  wdg=1 bus=C10_l3104133.1 kv=7.2 kva=25   wdg=2 bus=C10_x3104133a.1.0 kv=0.12 kva=25   wdg=3 bus=C10_x3104133a.0.2 kv=0.12 kva=25   %imag=0.5 %rs=[0.6 1.2 1.2] %noloadloss=.2 xhl=2.04  xht=2.04  xlt=1.36 
new transformer.C10_t21399762a        phases=1 windings=3  wdg=1 bus=C10_l2879087.1 kv=7.2 kva=15   wdg=2 bus=C10_x2879087a.1.0 kv=0.12 kva=15   wdg=3 bus=C10_x2879087a.0.2 kv=0.12 kva=15   %imag=0.5 %rs=[0.6 1.2 1.2] %noloadloss=.2 xhl=2.04  xht=2.04  xlt=1.36 
new transformer.C10_t5138650c         phases=1 windings=3  wdg=1 bus=C10_l2710510.3 kv=7.2 kva=10   wdg=2 bus=C10_x2710510c.1.0 kv=0.12 kva=10   wdg=3 bus=C10_x2710510c.0.2 kv=0.12 kva=10   %imag=0.5 %rs=[0.6 1.2 1.2] %noloadloss=.2 xhl=2.04  xht=2.04  xlt=1.36 
new transformer.C10_t5323242b         phases=1 windings=3  wdg=1 bus=C10_l3122810.2 kv=7.2 kva=25   wdg=2 bus=C10_x3122810b.1.0 kv=0.12 kva=25   wdg=3 bus=C10_x3122810b.0.2 kv=0.12 kva=25   %imag=0.5 %rs=[0.6 1.2 1.2] %noloadloss=.2 xhl=2.04  xht=2.04  xlt=1.36 
new transformer.C10_t28127090c        phases=1 windings=3  wdg=1 bus=C10_l2954352.3 kv=7.2 kva=25   wdg=2 bus=C10_x2954352c.1.0 kv=0.12 kva=25   wdg=3 bus=C10_x2954352c.0.2 kv=0.12 kva=25   %imag=0.5 %rs=[0.6 1.2 1.2] %noloadloss=.2 xhl=2.04  xht=2.04  xlt=1.36 
new transformer.C10_t5138769a         phases=1 windings=3  wdg=1 bus=C10_l2729411.1 kv=7.2 kva=10   wdg=2 bus=C10_x2729411a.1.0 kv=0.12 kva=10   wdg=3 bus=C10_x2729411a.0.2 kv=0.12 kva=10   %imag=0.5 %rs=[0.6 1.2 1.2] %noloadloss=.2 xhl=2.04  xht=2.04  xlt=1.36 
new transformer.C10_t5338896a         phases=1 windings=3  wdg=1 bus=C10_l3178971.1 kv=7.2 kva=15   wdg=2 bus=C10_x3178971a.1.0 kv=0.12 kva=15   wdg=3 bus=C10_x3178971a.0.2 kv=0.12 kva=15   %imag=0.5 %rs=[0.6 1.2 1.2] %noloadloss=.2 xhl=2.04  xht=2.04  xlt=1.36 
new transformer.C10_t5355586b         phases=1 windings=3  wdg=1 bus=C10_l3254234.2 kv=7.2 kva=25   wdg=2 bus=C10_x3254234b.1.0 kv=0.12 kva=25   wdg=3 bus=C10_x3254234b.0.2 kv=0.12 kva=25   %imag=0.5 %rs=[0.6 1.2 1.2] %noloadloss=.2 xhl=2.04  xht=2.04  xlt=1.36 
new transformer.C10_t5293471a         phases=1 windings=3  wdg=1 bus=C10_293471.1   kv=7.2 kva=25   wdg=2 bus=C10_x_293471a.1.0 kv=0.12 kva=25   wdg=3 bus=C10_x_293471a.0.2 kv=0.12 kva=25   %imag=0.5 %rs=[0.6 1.2 1.2] %noloadloss=.2 xhl=2.04  xht=2.04  xlt=1.36 
new transformer.C10_t5293471b         phases=1 windings=3  wdg=1 bus=C10_293471.2   kv=7.2 kva=25   wdg=2 bus=C10_x_293471b.1.0 kv=0.12 kva=25   wdg=3 bus=C10_x_293471b.0.2 kv=0.12 kva=25   %imag=0.5 %rs=[0.6 1.2 1.2] %noloadloss=.2 xhl=2.04  xht=2.04  xlt=1.36 
new transformer.C10_t5293471c         phases=1 windings=3  wdg=1 bus=C10_293471.3   kv=7.2 kva=25   wdg=2 bus=C10_x_293471c.1.0 kv=0.12 kva=25   wdg=3 bus=C10_x_293471c.0.2 kv=0.12 kva=25   %imag=0.5 %rs=[0.6 1.2 1.2] %noloadloss=.2 xhl=2.04  xht=2.04  xlt=1.36 
new transformer.C10_t5338954a         phases=1 windings=3  wdg=1 bus=C10_l2860482.1 kv=7.2 kva=25   wdg=2 bus=C10_x2860482a.1.0 kv=0.12 kva=25   wdg=3 bus=C10_x2860482a.0.2 kv=0.12 kva=25   %imag=0.5 %rs=[0.6 1.2 1.2] %noloadloss=.2 xhl=2.04  xht=2.04  xlt=1.36 
new transformer.C10_t21459629c        phases=1 windings=3  wdg=1 bus=C10_l2763811.3 kv=7.2 kva=75   wdg=2 bus=C10_x2763811c.1.0 kv=0.12 kva=75   wdg=3 bus=C10_x2763811c.0.2 kv=0.12 kva=75   %imag=0.5 %rs=[0.6 1.2 1.2] %noloadloss=.2 xhl=2.04  xht=2.04  xlt=1.36 
new transformer.C10_t5260562a         phases=1 windings=3  wdg=1 bus=C10_l3251799.1 kv=7.2 kva=37.5 wdg=2 bus=C10_x3251799a.1.0 kv=0.12 kva=37.5 wdg=3 bus=C10_x3251799a.0.2 kv=0.12 kva=37.5 %imag=0.5 %rs=[0.6 1.2 1.2] %noloadloss=.2 xhl=2.04  xht=2.04  xlt=1.36 
new transformer.C10_t21393486c        phases=1 windings=3  wdg=1 bus=C10_l2898526.3 kv=7.2 kva=15   wdg=2 bus=C10_x2898526c.1.0 kv=0.12 kva=15   wdg=3 bus=C10_x2898526c.0.2 kv=0.12 kva=15   %imag=0.5 %rs=[0.6 1.2 1.2] %noloadloss=.2 xhl=2.04  xht=2.04  xlt=1.36 
new transformer.C10_t5293518b         phases=1 windings=3  wdg=1 bus=C10_l2897780.2 kv=7.2 kva=25   wdg=2 bus=C10_x2897780b.1.0 kv=0.12 kva=25   wdg=3 bus=C10_x2897780b.0.2 kv=0.12 kva=25   %imag=0.5 %rs=[0.6 1.2 1.2] %noloadloss=.2 xhl=2.04  xht=2.04  xlt=1.36 
new transformer.C10_t226195194c       phases=1 windings=3  wdg=1 bus=C10_l3027124.3 kv=7.2 kva=25   wdg=2 bus=C10_x3027124c.1.0 kv=0.12 kva=25   wdg=3 bus=C10_x3027124c.0.2 kv=0.12 kva=25   %imag=0.5 %rs=[0.6 1.2 1.2] %noloadloss=.2 xhl=2.04  xht=2.04  xlt=1.36 
new transformer.C10_t21383494b        phases=1 windings=3  wdg=1 bus=C10_l2954361.2 kv=7.2 kva=25   wdg=2 bus=C10_x2954361b.1.0 kv=0.12 kva=25   wdg=3 bus=C10_x2954361b.0.2 kv=0.12 kva=25   %imag=0.5 %rs=[0.6 1.2 1.2] %noloadloss=.2 xhl=2.04  xht=2.04  xlt=1.36 
new transformer.C10_t5251863c         phases=1 windings=3  wdg=1 bus=C10_l2745811.3 kv=7.2 kva=25   wdg=2 bus=C10_x2745811c.1.0 kv=0.12 kva=25   wdg=3 bus=C10_x2745811c.0.2 kv=0.12 kva=25   %imag=0.5 %rs=[0.6 1.2 1.2] %noloadloss=.2 xhl=2.04  xht=2.04  xlt=1.36 
new transformer.C10_t5293645a         phases=1 windings=3  wdg=1 bus=C10_l2841633.1 kv=7.2 kva=25   wdg=2 bus=C10_x2841633a.1.0 kv=0.12 kva=25   wdg=3 bus=C10_x2841633a.0.2 kv=0.12 kva=25   %imag=0.5 %rs=[0.6 1.2 1.2] %noloadloss=.2 xhl=2.04  xht=2.04  xlt=1.36 
new transformer.C10_t21482431a        phases=1 windings=3  wdg=1 bus=C10_l2917359.1 kv=7.2 kva=15   wdg=2 bus=C10_x2917359a.1.0 kv=0.12 kva=15   wdg=3 bus=C10_x2917359a.0.2 kv=0.12 kva=15   %imag=0.5 %rs=[0.6 1.2 1.2] %noloadloss=.2 xhl=2.04  xht=2.04  xlt=1.36 
new transformer.C10_t5293480a         phases=1 windings=3  wdg=1 bus=C10_l2748158.1 kv=7.2 kva=15   wdg=2 bus=C10_x2748158a.1.0 kv=0.12 kva=15   wdg=3 bus=C10_x2748158a.0.2 kv=0.12 kva=15   %imag=0.5 %rs=[0.6 1.2 1.2] %noloadloss=.2 xhl=2.04  xht=2.04  xlt=1.36 
new transformer.C10_t21469911a        phases=1 windings=3  wdg=1 bus=C10_l2955047.1 kv=7.2 kva=25   wdg=2 bus=C10_x2955047a.1.0 kv=0.12 kva=25   wdg=3 bus=C10_x2955047a.0.2 kv=0.12 kva=25   %imag=0.5 %rs=[0.6 1.2 1.2] %noloadloss=.2 xhl=2.04  xht=2.04  xlt=1.36 
new transformer.C10_t5355432c         phases=1 windings=3  wdg=1 bus=C10_l3122837.3 kv=7.2 kva=37.5 wdg=2 bus=C10_x3122837c.1.0 kv=0.12 kva=37.5 wdg=3 bus=C10_x3122837c.0.2 kv=0.12 kva=37.5 %imag=0.5 %rs=[0.6 1.2 1.2] %noloadloss=.2 xhl=2.04  xht=2.04  xlt=1.36 
new transformer.C10_t5323285b         phases=1 windings=3  wdg=1 bus=C10_l2804269.2 kv=7.2 kva=25   wdg=2 bus=C10_x2804269b.1.0 kv=0.12 kva=25   wdg=3 bus=C10_x2804269b.0.2 kv=0.12 kva=25   %imag=0.5 %rs=[0.6 1.2 1.2] %noloadloss=.2 xhl=2.04  xht=2.04  xlt=1.36 
new transformer.C10_t226192954c       phases=1 windings=3  wdg=1 bus=C10_l3157708.3 kv=7.2 kva=15   wdg=2 bus=C10_x3157708c.1.0 kv=0.12 kva=15   wdg=3 bus=C10_x3157708c.0.2 kv=0.12 kva=15   %imag=0.5 %rs=[0.6 1.2 1.2] %noloadloss=.2 xhl=2.04  xht=2.04  xlt=1.36 
new transformer.C10_t5207292c         phases=1 windings=3  wdg=1 bus=C10_l3179682.3 kv=7.2 kva=15   wdg=2 bus=C10_x3179682c.1.0 kv=0.12 kva=15   wdg=3 bus=C10_x3179682c.0.2 kv=0.12 kva=15   %imag=0.5 %rs=[0.6 1.2 1.2] %noloadloss=.2 xhl=2.04  xht=2.04  xlt=1.36 
new transformer.C10_t5337672b         phases=1 windings=3  wdg=1 bus=C10_l2822877.2 kv=7.2 kva=15   wdg=2 bus=C10_x2822877b.1.0 kv=0.12 kva=15   wdg=3 bus=C10_x2822877b.0.2 kv=0.12 kva=15   %imag=0.5 %rs=[0.6 1.2 1.2] %noloadloss=.2 xhl=2.04  xht=2.04  xlt=1.36 
new transformer.C10_t5442373c         phases=1 windings=3  wdg=1 bus=C10_l3141393.3 kv=7.2 kva=25   wdg=2 bus=C10_x3141393c.1.0 kv=0.12 kva=25   wdg=3 bus=C10_x3141393c.0.2 kv=0.12 kva=25   %imag=0.5 %rs=[0.6 1.2 1.2] %noloadloss=.2 xhl=2.04  xht=2.04  xlt=1.36 
new transformer.C10_t21470405a        phases=1 windings=3  wdg=1 bus=C10_l2897801.1 kv=7.2 kva=37.5 wdg=2 bus=C10_x2897801a.1.0 kv=0.12 kva=37.5 wdg=3 bus=C10_x2897801a.0.2 kv=0.12 kva=37.5 %imag=0.5 %rs=[0.6 1.2 1.2] %noloadloss=.2 xhl=2.04  xht=2.04  xlt=1.36 
new transformer.C10_t5218474a         phases=1 windings=3  wdg=1 bus=C10_l3217056.1 kv=7.2 kva=50   wdg=2 bus=C10_x3217056a.1.0 kv=0.12 kva=50   wdg=3 bus=C10_x3217056a.0.2 kv=0.12 kva=50   %imag=0.5 %rs=[0.6 1.2 1.2] %noloadloss=.2 xhl=2.04  xht=2.04  xlt=1.36 
new transformer.C10_t5218472a         phases=1 windings=3  wdg=1 bus=C10_l2936270.1 kv=7.2 kva=25   wdg=2 bus=C10_x2936270a.1.0 kv=0.12 kva=25   wdg=3 bus=C10_x2936270a.0.2 kv=0.12 kva=25   %imag=0.5 %rs=[0.6 1.2 1.2] %noloadloss=.2 xhl=2.04  xht=2.04  xlt=1.36 
new transformer.C10_t5356014a         phases=1 windings=3  wdg=1 bus=C10_l3235249.1 kv=7.2 kva=10   wdg=2 bus=C10_x3235249a.1.0 kv=0.12 kva=10   wdg=3 bus=C10_x3235249a.0.2 kv=0.12 kva=10   %imag=0.5 %rs=[0.6 1.2 1.2] %noloadloss=.2 xhl=2.04  xht=2.04  xlt=1.36 
new transformer.C10_t5260528c         phases=1 windings=3  wdg=1 bus=C10_l3217052.3 kv=7.2 kva=25   wdg=2 bus=C10_x3217052c.1.0 kv=0.12 kva=25   wdg=3 bus=C10_x3217052c.0.2 kv=0.12 kva=25   %imag=0.5 %rs=[0.6 1.2 1.2] %noloadloss=.2 xhl=2.04  xht=2.04  xlt=1.36 
new transformer.C10_t5355933a         phases=1 windings=3  wdg=1 bus=C10_l2916598.1 kv=7.2 kva=10   wdg=2 bus=C10_x2916598a.1.0 kv=0.12 kva=10   wdg=3 bus=C10_x2916598a.0.2 kv=0.12 kva=10   %imag=0.5 %rs=[0.6 1.2 1.2] %noloadloss=.2 xhl=2.04  xht=2.04  xlt=1.36 
new transformer.C10_t5138649a         phases=1 windings=3  wdg=1 bus=C10_l3048206.1 kv=7.2 kva=25   wdg=2 bus=C10_x3048206a.1.0 kv=0.12 kva=25   wdg=3 bus=C10_x3048206a.0.2 kv=0.12 kva=25   %imag=0.5 %rs=[0.6 1.2 1.2] %noloadloss=.2 xhl=2.04  xht=2.04  xlt=1.36 
new transformer.C10_t5391978c         phases=1 windings=3  wdg=1 bus=C10_l3141402.3 kv=7.2 kva=25   wdg=2 bus=C10_x3141402c.1.0 kv=0.12 kva=25   wdg=3 bus=C10_x3141402c.0.2 kv=0.12 kva=25   %imag=0.5 %rs=[0.6 1.2 1.2] %noloadloss=.2 xhl=2.04  xht=2.04  xlt=1.36 
new transformer.C10_t5138642a         phases=1 windings=3  wdg=1 bus=C10_l3235256.1 kv=7.2 kva=15   wdg=2 bus=C10_x3235256a.1.0 kv=0.12 kva=15   wdg=3 bus=C10_x3235256a.0.2 kv=0.12 kva=15   %imag=0.5 %rs=[0.6 1.2 1.2] %noloadloss=.2 xhl=2.04  xht=2.04  xlt=1.36 
new transformer.C10_t21149420a        phases=1 windings=3  wdg=1 bus=C10_l3178973.1 kv=7.2 kva=25   wdg=2 bus=C10_x3178973a.1.0 kv=0.12 kva=25   wdg=3 bus=C10_x3178973a.0.2 kv=0.12 kva=25   %imag=0.5 %rs=[0.6 1.2 1.2] %noloadloss=.2 xhl=2.04  xht=2.04  xlt=1.36 
new transformer.C10_t21382992a        phases=1 windings=3  wdg=1 bus=C10_l3197654.1 kv=7.2 kva=25   wdg=2 bus=C10_x3197654a.1.0 kv=0.12 kva=25   wdg=3 bus=C10_x3197654a.0.2 kv=0.12 kva=25   %imag=0.5 %rs=[0.6 1.2 1.2] %noloadloss=.2 xhl=2.04  xht=2.04  xlt=1.36 
new transformer.C10_t5338958c         phases=1 windings=3  wdg=1 bus=C10_l3066809.3 kv=7.2 kva=25   wdg=2 bus=C10_x3066809c.1.0 kv=0.12 kva=25   wdg=3 bus=C10_x3066809c.0.2 kv=0.12 kva=25   %imag=0.5 %rs=[0.6 1.2 1.2] %noloadloss=.2 xhl=2.04  xht=2.04  xlt=1.36 
new transformer.C10_t5355585b         phases=1 windings=3  wdg=1 bus=C10_l2766742.2 kv=7.2 kva=15   wdg=2 bus=C10_x2766742b.1.0 kv=0.12 kva=15   wdg=3 bus=C10_x2766742b.0.2 kv=0.12 kva=15   %imag=0.5 %rs=[0.6 1.2 1.2] %noloadloss=.2 xhl=2.04  xht=2.04  xlt=1.36 
new transformer.C10_t5338900a         phases=1 windings=3  wdg=1 bus=C10_l2991908.1 kv=7.2 kva=15   wdg=2 bus=C10_x2991908a.1.0 kv=0.12 kva=15   wdg=3 bus=C10_x2991908a.0.2 kv=0.12 kva=15   %imag=0.5 %rs=[0.6 1.2 1.2] %noloadloss=.2 xhl=2.04  xht=2.04  xlt=1.36 
new transformer.C10_t5323389b         phases=1 windings=3  wdg=1 bus=C10_l3065750.2 kv=7.2 kva=25   wdg=2 bus=C10_x3065750b.1.0 kv=0.12 kva=25   wdg=3 bus=C10_x3065750b.0.2 kv=0.12 kva=25   %imag=0.5 %rs=[0.6 1.2 1.2] %noloadloss=.2 xhl=2.04  xht=2.04  xlt=1.36 
new transformer.C10_t28127253a        phases=1 windings=3  wdg=1 bus=C10_l3085401.1 kv=7.2 kva=37.5 wdg=2 bus=C10_x3085401a.1.0 kv=0.12 kva=37.5 wdg=3 bus=C10_x3085401a.0.2 kv=0.12 kva=37.5 %imag=0.5 %rs=[0.6 1.2 1.2] %noloadloss=.2 xhl=2.04  xht=2.04  xlt=1.36 
new transformer.C10_t21397067a        phases=1 windings=3  wdg=1 bus=C10_l2729413.1 kv=7.2 kva=15   wdg=2 bus=C10_x2729413a.1.0 kv=0.12 kva=15   wdg=3 bus=C10_x2729413a.0.2 kv=0.12 kva=15   %imag=0.5 %rs=[0.6 1.2 1.2] %noloadloss=.2 xhl=2.04  xht=2.04  xlt=1.36 
new transformer.C10_t5260520b         phases=1 windings=3  wdg=1 bus=C10_l3254915.2 kv=7.2 kva=5    wdg=2 bus=C10_x3254915b.1.0 kv=0.12 kva=5    wdg=3 bus=C10_x3254915b.0.2 kv=0.12 kva=5    %imag=0.5 %rs=[0.6 1.2 1.2] %noloadloss=.2 xhl=2.04  xht=2.04  xlt=1.36 
new transformer.C10_t5323250b         phases=1 windings=3  wdg=1 bus=C10_l2748131.2 kv=7.2 kva=15   wdg=2 bus=C10_x2748131b.1.0 kv=0.12 kva=15   wdg=3 bus=C10_x2748131b.0.2 kv=0.12 kva=15   %imag=0.5 %rs=[0.6 1.2 1.2] %noloadloss=.2 xhl=2.04  xht=2.04  xlt=1.36 
new transformer.C10_t5337659c         phases=1 windings=3  wdg=1 bus=C10_l3066810.3 kv=7.2 kva=25   wdg=2 bus=C10_x3066810c.1.0 kv=0.12 kva=25   wdg=3 bus=C10_x3066810c.0.2 kv=0.12 kva=25   %imag=0.5 %rs=[0.6 1.2 1.2] %noloadloss=.2 xhl=2.04  xht=2.04  xlt=1.36 
new transformer.C10_t28118903b        phases=1 windings=3  wdg=1 bus=C10_l2973146.2 kv=7.2 kva=25   wdg=2 bus=C10_x2973146b.1.0 kv=0.12 kva=25   wdg=3 bus=C10_x2973146b.0.2 kv=0.12 kva=25   %imag=0.5 %rs=[0.6 1.2 1.2] %noloadloss=.2 xhl=2.04  xht=2.04  xlt=1.36 
new transformer.C10_t21398646b        phases=1 windings=3  wdg=1 bus=C10_l2973180.2 kv=7.2 kva=25   wdg=2 bus=C10_x2973180b.1.0 kv=0.12 kva=25   wdg=3 bus=C10_x2973180b.0.2 kv=0.12 kva=25   %imag=0.5 %rs=[0.6 1.2 1.2] %noloadloss=.2 xhl=2.04  xht=2.04  xlt=1.36 
new transformer.C10_t5293656b         phases=1 windings=3  wdg=1 bus=C10_l2973167.2 kv=7.2 kva=15   wdg=2 bus=C10_x2973167b.1.0 kv=0.12 kva=15   wdg=3 bus=C10_x2973167b.0.2 kv=0.12 kva=15   %imag=0.5 %rs=[0.6 1.2 1.2] %noloadloss=.2 xhl=2.04  xht=2.04  xlt=1.36 
new transformer.C10_t5338910c         phases=1 windings=3  wdg=1 bus=C10_l2841621.3 kv=7.2 kva=25   wdg=2 bus=C10_x2841621c.1.0 kv=0.12 kva=25   wdg=3 bus=C10_x2841621c.0.2 kv=0.12 kva=25   %imag=0.5 %rs=[0.6 1.2 1.2] %noloadloss=.2 xhl=2.04  xht=2.04  xlt=1.36 
new transformer.C10_t28129923c        phases=1 windings=3  wdg=1 bus=C10_l3123509.3 kv=7.2 kva=15   wdg=2 bus=C10_x3123509c.1.0 kv=0.12 kva=15   wdg=3 bus=C10_x3123509c.0.2 kv=0.12 kva=15   %imag=0.5 %rs=[0.6 1.2 1.2] %noloadloss=.2 xhl=2.04  xht=2.04  xlt=1.36 
new transformer.C10_t5337716a         phases=1 windings=3  wdg=1 bus=C10_l2841627.1 kv=7.2 kva=15   wdg=2 bus=C10_x2841627a.1.0 kv=0.12 kva=15   wdg=3 bus=C10_x2841627a.0.2 kv=0.12 kva=15   %imag=0.5 %rs=[0.6 1.2 1.2] %noloadloss=.2 xhl=2.04  xht=2.04  xlt=1.36 
new transformer.C10_t5337698b         phases=1 windings=3  wdg=1 bus=C10_l3235250.2 kv=7.2 kva=10   wdg=2 bus=C10_x3235250b.1.0 kv=0.12 kva=10   wdg=3 bus=C10_x3235250b.0.2 kv=0.12 kva=10   %imag=0.5 %rs=[0.6 1.2 1.2] %noloadloss=.2 xhl=2.04  xht=2.04  xlt=1.36 
new transformer.C10_t2224386946a      phases=1 windings=3  wdg=1 bus=C10_l3728037.1 kv=7.2 kva=25   wdg=2 bus=C10_x3728037a.1.0 kv=0.12 kva=25   wdg=3 bus=C10_x3728037a.0.2 kv=0.12 kva=25   %imag=0.5 %rs=[0.6 1.2 1.2] %noloadloss=.2 xhl=2.04  xht=2.04  xlt=1.36 
new transformer.C10_t5330121b         phases=1 windings=3  wdg=1 bus=C10_l3142078.2 kv=7.2 kva=10   wdg=2 bus=C10_x3142078b.1.0 kv=0.12 kva=10   wdg=3 bus=C10_x3142078b.0.2 kv=0.12 kva=10   %imag=0.5 %rs=[0.6 1.2 1.2] %noloadloss=.2 xhl=2.04  xht=2.04  xlt=1.36 
new transformer.C10_t5323252b         phases=1 windings=3  wdg=1 bus=C10_l2879066.2 kv=7.2 kva=15   wdg=2 bus=C10_x2879066b.1.0 kv=0.12 kva=15   wdg=3 bus=C10_x2879066b.0.2 kv=0.12 kva=15   %imag=0.5 %rs=[0.6 1.2 1.2] %noloadloss=.2 xhl=2.04  xht=2.04  xlt=1.36 
new transformer.C10_t5441331c         phases=1 windings=3  wdg=1 bus=C10_l3235254.3 kv=7.2 kva=25   wdg=2 bus=C10_x3235254c.1.0 kv=0.12 kva=25   wdg=3 bus=C10_x3235254c.0.2 kv=0.12 kva=25   %imag=0.5 %rs=[0.6 1.2 1.2] %noloadloss=.2 xhl=2.04  xht=2.04  xlt=1.36 
new transformer.C10_t5260474a         phases=1 windings=3  wdg=1 bus=C10_l2917330.1 kv=7.2 kva=25   wdg=2 bus=C10_x2917330a.1.0 kv=0.12 kva=25   wdg=3 bus=C10_x2917330a.0.2 kv=0.12 kva=25   %imag=0.5 %rs=[0.6 1.2 1.2] %noloadloss=.2 xhl=2.04  xht=2.04  xlt=1.36 
new transformer.C10_t5355376b         phases=1 windings=3  wdg=1 bus=C10_l2914323.2 kv=7.2 kva=10   wdg=2 bus=C10_x2914323b.1.0 kv=0.12 kva=10   wdg=3 bus=C10_x2914323b.0.2 kv=0.12 kva=10   %imag=0.5 %rs=[0.6 1.2 1.2] %noloadloss=.2 xhl=2.04  xht=2.04  xlt=1.36 
new transformer.C10_t5338944c         phases=1 windings=3  wdg=1 bus=C10_l3197640.3 kv=7.2 kva=10   wdg=2 bus=C10_x3197640c.1.0 kv=0.12 kva=10   wdg=3 bus=C10_x3197640c.0.2 kv=0.12 kva=10   %imag=0.5 %rs=[0.6 1.2 1.2] %noloadloss=.2 xhl=2.04  xht=2.04  xlt=1.36 
new transformer.C10_t5260640c         phases=1 windings=3  wdg=1 bus=C10_l3179673.3 kv=7.2 kva=15   wdg=2 bus=C10_x3179673c.1.0 kv=0.12 kva=15   wdg=3 bus=C10_x3179673c.0.2 kv=0.12 kva=15   %imag=0.5 %rs=[0.6 1.2 1.2] %noloadloss=.2 xhl=2.04  xht=2.04  xlt=1.36 
new transformer.C10_t5274997c         phases=1 windings=3  wdg=1 bus=C10_l3048228.3 kv=7.2 kva=25   wdg=2 bus=C10_x3048228c.1.0 kv=0.12 kva=25   wdg=3 bus=C10_x3048228c.0.2 kv=0.12 kva=25   %imag=0.5 %rs=[0.6 1.2 1.2] %noloadloss=.2 xhl=2.04  xht=2.04  xlt=1.36 
new transformer.C10_t5138372c         phases=1 windings=3  wdg=1 bus=C10_l3104126.3 kv=7.2 kva=10   wdg=2 bus=C10_x3104126c.1.0 kv=0.12 kva=10   wdg=3 bus=C10_x3104126c.0.2 kv=0.12 kva=10   %imag=0.5 %rs=[0.6 1.2 1.2] %noloadloss=.2 xhl=2.04  xht=2.04  xlt=1.36 
new transformer.C10_t226308721a       phases=1 windings=3  wdg=1 bus=C10_l2990098.1 kv=7.2 kva=50   wdg=2 bus=C10_x2990098a.1.0 kv=0.12 kva=50   wdg=3 bus=C10_x2990098a.0.2 kv=0.12 kva=50   %imag=0.5 %rs=[0.6 1.2 1.2] %noloadloss=.2 xhl=2.04  xht=2.04  xlt=1.36 
new transformer.C10_t21380616a        phases=1 windings=3  wdg=1 bus=C10_l2879067.1 kv=7.2 kva=25   wdg=2 bus=C10_x2879067a.1.0 kv=0.12 kva=25   wdg=3 bus=C10_x2879067a.0.2 kv=0.12 kva=25   %imag=0.5 %rs=[0.6 1.2 1.2] %noloadloss=.2 xhl=2.04  xht=2.04  xlt=1.36 
new transformer.C10_t226193170a       phases=1 windings=3  wdg=1 bus=C10_l3176656.1 kv=7.2 kva=25   wdg=2 bus=C10_x3176656a.1.0 kv=0.12 kva=25   wdg=3 bus=C10_x3176656a.0.2 kv=0.12 kva=25   %imag=0.5 %rs=[0.6 1.2 1.2] %noloadloss=.2 xhl=2.04  xht=2.04  xlt=1.36 
new transformer.C10_t5293666c         phases=1 windings=3  wdg=1 bus=C10_l2710532.3 kv=7.2 kva=10   wdg=2 bus=C10_x2710532c.1.0 kv=0.12 kva=10   wdg=3 bus=C10_x2710532c.0.2 kv=0.12 kva=10   %imag=0.5 %rs=[0.6 1.2 1.2] %noloadloss=.2 xhl=2.04  xht=2.04  xlt=1.36 
new transformer.C10_t5338994b         phases=1 windings=3  wdg=1 bus=C10_l3160115.2 kv=7.2 kva=50   wdg=2 bus=C10_x3160115b.1.0 kv=0.12 kva=50   wdg=3 bus=C10_x3160115b.0.2 kv=0.12 kva=50   %imag=0.5 %rs=[0.6 1.2 1.2] %noloadloss=.2 xhl=2.04  xht=2.04  xlt=1.36 
new transformer.C10_t228665517c       phases=1 windings=3  wdg=1 bus=C10_l3103822.3 kv=7.2 kva=37.5 wdg=2 bus=C10_x3103822c.1.0 kv=0.12 kva=37.5 wdg=3 bus=C10_x3103822c.0.2 kv=0.12 kva=37.5 %imag=0.5 %rs=[0.6 1.2 1.2] %noloadloss=.2 xhl=2.04  xht=2.04  xlt=1.36 
new transformer.C10_t5260647a         phases=1 windings=3  wdg=1 bus=C10_l2805034.1 kv=7.2 kva=10   wdg=2 bus=C10_x2805034a.1.0 kv=0.12 kva=10   wdg=3 bus=C10_x2805034a.0.2 kv=0.12 kva=10   %imag=0.5 %rs=[0.6 1.2 1.2] %noloadloss=.2 xhl=2.04  xht=2.04  xlt=1.36 
new transformer.C10_t226115278a       phases=1 windings=3  wdg=1 bus=C10_l3157167.1 kv=7.2 kva=15   wdg=2 bus=C10_x3157167a.1.0 kv=0.12 kva=15   wdg=3 bus=C10_x3157167a.0.2 kv=0.12 kva=15   %imag=0.5 %rs=[0.6 1.2 1.2] %noloadloss=.2 xhl=2.04  xht=2.04  xlt=1.36 
new transformer.C10_t5338977a         phases=1 windings=3  wdg=1 bus=C10_l2916620.1 kv=7.2 kva=10   wdg=2 bus=C10_x2916620a.1.0 kv=0.12 kva=10   wdg=3 bus=C10_x2916620a.0.2 kv=0.12 kva=10   %imag=0.5 %rs=[0.6 1.2 1.2] %noloadloss=.2 xhl=2.04  xht=2.04  xlt=1.36 
new transformer.C10_t5338977b         phases=1 windings=3  wdg=1 bus=C10_l2916620.2 kv=7.2 kva=10   wdg=2 bus=C10_x2916620b.1.0 kv=0.12 kva=10   wdg=3 bus=C10_x2916620b.0.2 kv=0.12 kva=10   %imag=0.5 %rs=[0.6 1.2 1.2] %noloadloss=.2 xhl=2.04  xht=2.04  xlt=1.36 
new transformer.C10_t5338977c         phases=1 windings=3  wdg=1 bus=C10_l2916620.3 kv=7.2 kva=10   wdg=2 bus=C10_x2916620c.1.0 kv=0.12 kva=10   wdg=3 bus=C10_x2916620c.0.2 kv=0.12 kva=10   %imag=0.5 %rs=[0.6 1.2 1.2] %noloadloss=.2 xhl=2.04  xht=2.04  xlt=1.36 
new transformer.C10_t5321876a         phases=1 windings=3  wdg=1 bus=C10_l3027132.1 kv=7.2 kva=15   wdg=2 bus=C10_x3027132a.1.0 kv=0.12 kva=15   wdg=3 bus=C10_x3027132a.0.2 kv=0.12 kva=15   %imag=0.5 %rs=[0.6 1.2 1.2] %noloadloss=.2 xhl=2.04  xht=2.04  xlt=1.36 
new transformer.C10_t5275001c         phases=1 windings=3  wdg=1 bus=C10_l2822862.3 kv=7.2 kva=15   wdg=2 bus=C10_x2822862c.1.0 kv=0.12 kva=15   wdg=3 bus=C10_x2822862c.0.2 kv=0.12 kva=15   %imag=0.5 %rs=[0.6 1.2 1.2] %noloadloss=.2 xhl=2.04  xht=2.04  xlt=1.36 
new transformer.C10_t227411650c       phases=1 windings=3  wdg=1 bus=C10_l2937757.3 kv=7.2 kva=25   wdg=2 bus=C10_x2937757c.1.0 kv=0.12 kva=25   wdg=3 bus=C10_x2937757c.0.2 kv=0.12 kva=25   %imag=0.5 %rs=[0.6 1.2 1.2] %noloadloss=.2 xhl=2.04  xht=2.04  xlt=1.36 
new transformer.C10_t21396699b        phases=1 windings=3  wdg=1 bus=C10_l2860483.2 kv=7.2 kva=25   wdg=2 bus=C10_x2860483b.1.0 kv=0.12 kva=25   wdg=3 bus=C10_x2860483b.0.2 kv=0.12 kva=25   %imag=0.5 %rs=[0.6 1.2 1.2] %noloadloss=.2 xhl=2.04  xht=2.04  xlt=1.36 
new transformer.C10_t5302412a         phases=1 windings=3  wdg=1 bus=C10_l3048210.1 kv=7.2 kva=37.5 wdg=2 bus=C10_x3048210a.1.0 kv=0.12 kva=37.5 wdg=3 bus=C10_x3048210a.0.2 kv=0.12 kva=37.5 %imag=0.5 %rs=[0.6 1.2 1.2] %noloadloss=.2 xhl=2.04  xht=2.04  xlt=1.36 
new transformer.C10_t2223661373a      phases=1 windings=3  wdg=1 bus=C10_l3312692.1 kv=7.2 kva=25   wdg=2 bus=C10_x3312692a.1.0 kv=0.12 kva=25   wdg=3 bus=C10_x3312692a.0.2 kv=0.12 kva=25   %imag=0.5 %rs=[0.6 1.2 1.2] %noloadloss=.2 xhl=2.04  xht=2.04  xlt=1.36 
new transformer.C10_t226881700a       phases=1 windings=3  wdg=1 bus=C10_l3251854.1 kv=7.2 kva=25   wdg=2 bus=C10_x3251854a.1.0 kv=0.12 kva=25   wdg=3 bus=C10_x3251854a.0.2 kv=0.12 kva=25   %imag=0.5 %rs=[0.6 1.2 1.2] %noloadloss=.2 xhl=2.04  xht=2.04  xlt=1.36 
new transformer.C10_t5355777b         phases=1 windings=3  wdg=1 bus=C10_l3085398.2 kv=7.2 kva=25   wdg=2 bus=C10_x3085398b.1.0 kv=0.12 kva=25   wdg=3 bus=C10_x3085398b.0.2 kv=0.12 kva=25   %imag=0.5 %rs=[0.6 1.2 1.2] %noloadloss=.2 xhl=2.04  xht=2.04  xlt=1.36 
new transformer.C10_t5337671a         phases=1 windings=3  wdg=1 bus=C10_l3254207.1 kv=7.2 kva=15   wdg=2 bus=C10_x3254207a.1.0 kv=0.12 kva=15   wdg=3 bus=C10_x3254207a.0.2 kv=0.12 kva=15   %imag=0.5 %rs=[0.6 1.2 1.2] %noloadloss=.2 xhl=2.04  xht=2.04  xlt=1.36 
new transformer.C10_t5339018a         phases=1 windings=3  wdg=1 bus=C10_l2729424.1 kv=7.2 kva=15   wdg=2 bus=C10_x2729424a.1.0 kv=0.12 kva=15   wdg=3 bus=C10_x2729424a.0.2 kv=0.12 kva=15   %imag=0.5 %rs=[0.6 1.2 1.2] %noloadloss=.2 xhl=2.04  xht=2.04  xlt=1.36 
new transformer.C10_t21398676a        phases=1 windings=3  wdg=1 bus=C10_l3066816.1 kv=7.2 kva=15   wdg=2 bus=C10_x3066816a.1.0 kv=0.12 kva=15   wdg=3 bus=C10_x3066816a.0.2 kv=0.12 kva=15   %imag=0.5 %rs=[0.6 1.2 1.2] %noloadloss=.2 xhl=2.04  xht=2.04  xlt=1.36 
new transformer.C10_t5138469c         phases=1 windings=3  wdg=1 bus=C10_l2785518.3 kv=7.2 kva=15   wdg=2 bus=C10_x2785518c.1.0 kv=0.12 kva=15   wdg=3 bus=C10_x2785518c.0.2 kv=0.12 kva=15   %imag=0.5 %rs=[0.6 1.2 1.2] %noloadloss=.2 xhl=2.04  xht=2.04  xlt=1.36 
new transformer.C10_t5138373c         phases=1 windings=3  wdg=1 bus=C10_l3029503.3 kv=7.2 kva=15   wdg=2 bus=C10_x3029503c.1.0 kv=0.12 kva=15   wdg=3 bus=C10_x3029503c.0.2 kv=0.12 kva=15   %imag=0.5 %rs=[0.6 1.2 1.2] %noloadloss=.2 xhl=2.04  xht=2.04  xlt=1.36 
new transformer.C10_t5391995a         phases=1 windings=3  wdg=1 bus=C10_l2748140.1 kv=7.2 kva=25   wdg=2 bus=C10_x2748140a.1.0 kv=0.12 kva=25   wdg=3 bus=C10_x2748140a.0.2 kv=0.12 kva=25   %imag=0.5 %rs=[0.6 1.2 1.2] %noloadloss=.2 xhl=2.04  xht=2.04  xlt=1.36 
new transformer.C10_t225533423c       phases=1 windings=3  wdg=1 bus=C10_l2891575.3 kv=7.2 kva=15   wdg=2 bus=C10_x2891575c.1.0 kv=0.12 kva=15   wdg=3 bus=C10_x2891575c.0.2 kv=0.12 kva=15   %imag=0.5 %rs=[0.6 1.2 1.2] %noloadloss=.2 xhl=2.04  xht=2.04  xlt=1.36 
new transformer.C10_t5260568c         phases=1 windings=3  wdg=1 bus=C10_l2842329.3 kv=7.2 kva=15   wdg=2 bus=C10_x2842329c.1.0 kv=0.12 kva=15   wdg=3 bus=C10_x2842329c.0.2 kv=0.12 kva=15   %imag=0.5 %rs=[0.6 1.2 1.2] %noloadloss=.2 xhl=2.04  xht=2.04  xlt=1.36 
new transformer.C10_t5138754b         phases=1 windings=3  wdg=1 bus=C10_l3254212.2 kv=7.2 kva=37.5 wdg=2 bus=C10_x3254212b.1.0 kv=0.12 kva=37.5 wdg=3 bus=C10_x3254212b.0.2 kv=0.12 kva=37.5 %imag=0.5 %rs=[0.6 1.2 1.2] %noloadloss=.2 xhl=2.04  xht=2.04  xlt=1.36 
new transformer.C10_t5260552a         phases=1 windings=3  wdg=1 bus=C10_l3198348.1 kv=7.2 kva=50   wdg=2 bus=C10_x3198348a.1.0 kv=0.12 kva=50   wdg=3 bus=C10_x3198348a.0.2 kv=0.12 kva=50   %imag=0.5 %rs=[0.6 1.2 1.2] %noloadloss=.2 xhl=2.04  xht=2.04  xlt=1.36 